Version 4
SHEET 1 3196 952
WIRE 1712 -544 1664 -544
WIRE 1936 -544 1904 -544
WIRE 2080 -544 2064 -544
WIRE 1840 -480 1840 -496
WIRE 1936 -480 1840 -480
WIRE 2080 -480 2080 -544
WIRE 2080 -480 2064 -480
WIRE 1600 -464 1600 -480
WIRE 1600 -464 1568 -464
WIRE 2208 -464 2208 -576
WIRE 2208 -464 2144 -464
WIRE 2272 -464 2272 -480
WIRE 2272 -464 2208 -464
WIRE 2336 -464 2272 -464
WIRE 2144 -448 2144 -464
WIRE 1840 -432 1840 -480
WIRE 1712 -400 1712 -544
WIRE 1840 -400 1840 -432
WIRE 1840 -400 1712 -400
WIRE 1840 -384 1840 -400
WIRE 1920 -384 1840 -384
WIRE 2080 -384 2048 -384
WIRE 1840 -368 1840 -384
WIRE 1904 -368 1840 -368
WIRE 1600 -304 1600 -464
WIRE 1616 -304 1600 -304
WIRE 1776 -304 1744 -304
WIRE 1904 -240 1904 -368
WIRE 1920 -240 1904 -240
WIRE 2160 -240 2048 -240
WIRE 2160 -224 2160 -240
WIRE 1840 -208 1840 -240
WIRE 2160 -192 2160 -224
WIRE 1936 -144 1904 -144
WIRE 2096 -128 2080 -128
WIRE 2240 -128 2224 -128
WIRE 2256 -128 2240 -128
WIRE 2400 -128 2384 -128
WIRE 2240 -96 2240 -128
WIRE 1840 -32 1840 -80
WIRE 2320 -32 2304 -32
WIRE 2240 48 2240 32
FLAG 2080 -128 Li
FLAG 2272 -640 _Rst
FLAG 2208 -704 POS
FLAG 2160 -224 D
FLAG 2240 48 NEG
FLAG 2320 -32 Rst
FLAG 1840 -32 NEG
FLAG 2144 -320 NEG
FLAG 1840 -608 POS
FLAG 1600 -608 POS
FLAG 1840 -432 M
FLAG 1568 -464 Le
FLAG 1936 -144 POS
SYMBOL Stat 2272 -528 R0
SYMATTR InstName X16
SYMATTR SpiceLine E={E} F={F}
SYMBOL nmos3 2160 -128 R90
WINDOW 0 -19 -1 Left 2
SYMATTR InstName Pt
SYMATTR SpiceLine W={P}
SYMBOL Latch 2320 -128 R0
SYMATTR InstName X34
SYMATTR SpiceLine U={U} V={V} W={W}
SYMBOL cktsym/pmos3 2208 -640 M0
WINDOW 0 -19 -1 Left 2
SYMATTR InstName GRe
SYMATTR SpiceLine W={G}
SYMBOL nmos3 2240 -32 M0
WINDOW 0 -26 14 Left 2
SYMATTR InstName HRto
SYMATTR SpiceLine W={H}
SYMBOL cktsym/pmos3 1600 -544 M0
WINDOW 0 -18 0 Left 2
SYMATTR InstName Y1
SYMATTR SpiceLine W={Y}
SYMBOL inverter 1680 -304 R0
WINDOW 0 -14 -1 Left 2
SYMATTR InstName A1
SYMATTR SpiceLine W={A}
SYMBOL cktsym/nmos3 1840 -304 R0
WINDOW 0 -18 -1 Left 2
SYMATTR InstName B1
SYMATTR SpiceLine W={B}
SYMBOL cktsym/nmos3 1840 -144 M0
WINDOW 0 -18 -1 Left 2
SYMATTR InstName X1
SYMATTR SpiceLine W={X}
SYMBOL inverter 1984 -384 R0
WINDOW 0 -14 -1 Left 2
SYMATTR InstName C1
SYMATTR SpiceLine W={C}
SYMBOL inverter 2000 -480 R0
WINDOW 0 -14 -1 Left 2
SYMATTR InstName R1
SYMATTR SpiceLine W={R}
SYMBOL cktsym/pmos3 1840 -544 M0
WINDOW 0 -18 0 Left 2
SYMATTR InstName T1
SYMATTR SpiceLine W={T}
SYMBOL inverter 2000 -544 M0
WINDOW 0 -14 -1 Left 2
SYMATTR InstName S1
SYMATTR SpiceLine W={S}
SYMBOL cktsym/nmos3 2144 -384 R0
WINDOW 0 -18 -1 Left 2
SYMATTR InstName D1
SYMATTR SpiceLine W={D}
SYMBOL inverter 1984 -240 R0
WINDOW 0 -14 -1 Left 2
SYMATTR InstName Q1
SYMATTR SpiceLine W={Q}
TEXT 2352 -616 Left 2 !.param A=30
TEXT 2352 -592 Left 2 !.param B=67
TEXT 2352 -568 Left 2 !.param C=14
TEXT 2352 -544 Left 2 !.param D=62
TEXT 2352 -520 Left 2 !.param E=6
TEXT 2352 -496 Left 2 !.param F=60
TEXT 2352 -424 Left 2 !.param P=60
TEXT 2352 -400 Left 2 !.param Q=40
TEXT 2352 -376 Left 2 !.param R=20
TEXT 2352 -352 Left 2 !.param S=30
TEXT 2352 -328 Left 2 !.param T=67
TEXT 2352 -232 Left 2 !.param X=67
TEXT 2352 -208 Left 2 !.param Y=73
TEXT 2352 -304 Left 2 !.param U=6
TEXT 2352 -280 Left 2 !.param V=60
TEXT 2352 -256 Left 2 !.param W=60
TEXT 2352 -448 Left 2 !.param H=600
TEXT 2352 -472 Left 2 !.param G=600
