Version 4
SHEET 1 3196 952
WIRE 2112 176 2112 160
WIRE 2016 224 1984 224
WIRE 2160 224 2160 112
WIRE 2160 224 2144 224
WIRE 2224 224 2224 208
WIRE 2224 224 2160 224
WIRE 2272 224 2224 224
WIRE 2048 288 2048 272
WIRE 2112 288 2112 272
WIRE 2048 304 2048 288
WIRE 1984 368 1968 368
WIRE 2128 368 2112 368
WIRE 2144 368 2128 368
WIRE 2288 368 2272 368
WIRE 2128 400 2128 368
WIRE 2208 464 2192 464
WIRE 2128 544 2128 528
FLAG 2288 368 Ro
FLAG 2272 224 Re
FLAG 1968 368 Li
FLAG 1984 224 Le
FLAG 2224 48 _Rst
FLAG 2112 160 POS
FLAG 2160 -16 POS
FLAG 2048 288 D
FLAG 2128 544 NEG
FLAG 2208 464 Rst
FLAG 2112 288 NEG
SYMBOL Stat 2224 160 R0
SYMATTR InstName X16
SYMATTR SpiceLine E={E} F={F}
SYMBOL nmos3 2048 368 R90
WINDOW 0 -19 -1 Left 2
SYMATTR InstName Pt
SYMATTR SpiceLine W={P}
SYMBOL Latch 2208 368 R0
SYMATTR InstName X34
SYMATTR SpiceLine U={U} V={V} W={W}
SYMBOL GasPCtrl 2080 224 R0
SYMATTR InstName X49
SYMATTR SpiceLine A={A} B={B} C={C} D={D} Q={Q} R={R} S={S} T={T} X={X} Y={Y} Vdd={Vdd}
SYMBOL cktsym/pmos3 2160 48 M0
WINDOW 0 -19 -1 Left 2
SYMATTR InstName GRe
SYMATTR SpiceLine W={G}
SYMBOL nmos3 2128 464 M0
WINDOW 0 -26 14 Left 2
SYMATTR InstName HRo
SYMATTR SpiceLine W={H}
TEXT 2328 72 Left 2 !.param A=30
TEXT 2328 96 Left 2 !.param B=67
TEXT 2328 120 Left 2 !.param C=14
TEXT 2328 144 Left 2 !.param D=62
TEXT 2328 168 Left 2 !.param E=6
TEXT 2328 192 Left 2 !.param F=60
TEXT 2328 264 Left 2 !.param P=60
TEXT 2328 288 Left 2 !.param Q=40
TEXT 2328 312 Left 2 !.param R=20
TEXT 2328 336 Left 2 !.param S=30
TEXT 2328 360 Left 2 !.param T=67
TEXT 2328 456 Left 2 !.param X=67
TEXT 2328 480 Left 2 !.param Y=73
TEXT 2328 384 Left 2 !.param U=6
TEXT 2328 408 Left 2 !.param V=60
TEXT 2328 432 Left 2 !.param W=60
TEXT 2328 240 Left 2 !.param H=600
TEXT 2328 216 Left 2 !.param G=600
