Version 4
SHEET 1 1060 728
WIRE 224 80 176 80
WIRE 448 80 416 80
WIRE 592 80 576 80
WIRE 352 144 352 128
WIRE 448 144 352 144
WIRE 592 144 592 80
WIRE 592 144 576 144
WIRE 112 160 112 144
WIRE 112 160 96 160
WIRE 688 160 656 160
WIRE 704 160 688 160
WIRE 656 176 656 160
WIRE 352 192 352 144
WIRE 224 224 224 80
WIRE 352 224 352 192
WIRE 352 224 224 224
WIRE 352 240 352 224
WIRE 432 240 352 240
WIRE 592 240 560 240
WIRE 352 256 352 240
WIRE 432 256 352 256
WIRE 112 320 112 160
WIRE 128 320 112 320
WIRE 288 320 256 320
WIRE 352 416 352 384
WIRE 688 480 688 160
WIRE 688 480 416 480
WIRE 432 496 432 256
FLAG 352 544 NEG
FLAG 656 304 NEG
FLAG 352 16 POS
FLAG 112 16 POS
FLAG 96 160 L
FLAG 704 160 R
FLAG 432 624 OUT
FLAG 352 192 M
SYMBOL cktsym/pmos3 112 80 M0
WINDOW 0 -18 0 Left 2
SYMATTR InstName Y
SYMATTR SpiceLine W={Y}
SYMBOL inverter 192 320 R0
WINDOW 0 -14 -1 Left 2
SYMATTR InstName A
SYMATTR SpiceLine W={A}
SYMBOL cktsym/nmos3 352 320 R0
WINDOW 0 -18 -1 Left 2
SYMATTR InstName B
SYMATTR SpiceLine W={B}
SYMBOL cktsym/nmos3 352 480 M0
WINDOW 0 -18 -1 Left 2
SYMATTR InstName X
SYMATTR SpiceLine W={X}
SYMBOL inverter 496 240 R0
WINDOW 0 -14 -1 Left 2
SYMATTR InstName C
SYMATTR SpiceLine W={C}
SYMBOL inverter 512 144 R0
WINDOW 0 -14 -1 Left 2
SYMATTR InstName R
SYMATTR SpiceLine W={R}
SYMBOL cktsym/pmos3 352 80 M0
WINDOW 0 -18 0 Left 2
SYMATTR InstName T
SYMATTR SpiceLine W={T}
SYMBOL inverter 512 80 M0
WINDOW 0 -14 -1 Left 2
SYMATTR InstName S
SYMATTR SpiceLine W={S}
SYMBOL cktsym/nmos3 656 240 R0
WINDOW 0 -18 -1 Left 2
SYMATTR InstName D
SYMATTR SpiceLine W={D}
SYMBOL inverter 432 560 R90
WINDOW 0 -14 -1 Left 2
SYMATTR InstName Q
SYMATTR SpiceLine W={Q}
