Version 4
SHEET 1 3508 984
WIRE 1840 -464 1792 -464
WIRE 2064 -464 2032 -464
WIRE 2208 -464 2192 -464
WIRE 1968 -400 1968 -416
WIRE 2064 -400 1968 -400
WIRE 2208 -400 2208 -464
WIRE 2208 -400 2192 -400
WIRE 2304 -384 2272 -384
WIRE 2336 -384 2304 -384
WIRE 2432 -384 2432 -400
WIRE 2432 -384 2336 -384
WIRE 2480 -384 2432 -384
WIRE 2272 -368 2272 -384
WIRE 2336 -368 2336 -384
WIRE 1968 -352 1968 -400
WIRE 1840 -320 1840 -464
WIRE 1968 -320 1968 -352
WIRE 1968 -320 1840 -320
WIRE 1968 -304 1968 -320
WIRE 2048 -304 1968 -304
WIRE 2208 -304 2176 -304
WIRE 2416 -304 2400 -304
WIRE 1968 -288 1968 -304
WIRE 2048 -288 1968 -288
WIRE 1728 -224 1728 -400
WIRE 1744 -224 1728 -224
WIRE 1904 -224 1872 -224
WIRE 2336 -224 2336 -240
WIRE 1728 -144 1728 -224
WIRE 1760 -144 1728 -144
WIRE 2304 -144 2304 -384
WIRE 2304 -144 1888 -144
WIRE 1968 -128 1968 -160
WIRE 2304 -64 2304 -144
WIRE 2304 -64 2032 -64
WIRE 2048 -16 2048 -288
WIRE 2192 -16 2176 -16
WIRE 2336 -16 2320 -16
WIRE 2336 0 2336 -16
WIRE 2128 64 2112 64
WIRE 2272 64 2256 64
WIRE 2416 64 2416 48
WIRE 2416 64 2400 64
WIRE 2464 64 2416 64
WIRE 2608 64 2592 64
WIRE 2624 64 2608 64
WIRE 2112 112 2112 64
WIRE 2608 112 2608 64
WIRE 2608 112 2112 112
FLAG 2624 64 Ro
FLAG 2480 -384 Re
FLAG 2480 -16 _Rst
FLAG 2416 -80 POS
FLAG 2336 -224 NEG
FLAG 2416 -304 Rst
FLAG 1968 0 NEG
FLAG 2272 -240 NEG
FLAG 1968 -528 POS
FLAG 1728 -528 POS
FLAG 1968 -352 M
SYMBOL Stat 2432 -448 R0
SYMATTR InstName X3
SYMATTR SpiceLine E={E} F={F}
SYMBOL nmos3 2336 64 R90
WINDOW 0 -19 -1 Left 2
SYMATTR InstName P
SYMATTR SpiceLine W={P}
SYMBOL Latch 2528 64 R0
SYMATTR InstName X2
SYMATTR SpiceLine U={U} V={V} W={W}
SYMBOL cktsym/pmos3 2416 -16 M0
WINDOW 0 -19 -1 Left 2
SYMATTR InstName HRo
SYMATTR SpiceLine W={H}
SYMBOL nmos3 2336 -304 M0
WINDOW 0 -26 14 Left 2
SYMATTR InstName GRe
SYMATTR SpiceLine W={G}
SYMBOL inverter 2192 64 M180
WINDOW 0 0 0 Left 2
SYMATTR InstName Z
SYMATTR SpiceLine W={Z}
SYMBOL inverter 1824 -144 M0
WINDOW 0 0 0 Left 2
SYMATTR InstName I
SYMATTR SpiceLine W={I}
SYMBOL cktsym/pmos3 1728 -464 M0
WINDOW 0 -18 0 Left 2
SYMATTR InstName Y
SYMATTR SpiceLine W={Y}
SYMBOL inverter 1808 -224 R0
WINDOW 0 -14 -1 Left 2
SYMATTR InstName A
SYMATTR SpiceLine W={A}
SYMBOL cktsym/nmos3 1968 -224 R0
WINDOW 0 -18 -1 Left 2
SYMATTR InstName B
SYMATTR SpiceLine W={B}
SYMBOL cktsym/nmos3 1968 -64 M0
WINDOW 0 -18 -1 Left 2
SYMATTR InstName X
SYMATTR SpiceLine W={X}
SYMBOL inverter 2112 -304 R0
WINDOW 0 -14 -1 Left 2
SYMATTR InstName C
SYMATTR SpiceLine W={C}
SYMBOL inverter 2128 -400 R0
WINDOW 0 -14 -1 Left 2
SYMATTR InstName R
SYMATTR SpiceLine W={R}
SYMBOL cktsym/pmos3 1968 -464 M0
WINDOW 0 -18 0 Left 2
SYMATTR InstName T
SYMATTR SpiceLine W={T}
SYMBOL inverter 2128 -464 M0
WINDOW 0 -14 -1 Left 2
SYMATTR InstName S
SYMATTR SpiceLine W={S}
SYMBOL cktsym/nmos3 2272 -304 R0
WINDOW 0 -18 -1 Left 2
SYMATTR InstName D
SYMATTR SpiceLine W={D}
SYMBOL inverter 2112 -16 R0
WINDOW 0 -14 -1 Left 2
SYMATTR InstName Q
SYMATTR SpiceLine W={Q}
SYMBOL inverter 2256 -16 R0
WINDOW 0 -14 -1 Left 2
SYMATTR InstName J
SYMATTR SpiceLine W={J}
TEXT 2552 -488 Left 2 !.param A=41
TEXT 2552 -464 Left 2 !.param B=93
TEXT 2552 -440 Left 2 !.param C=17
TEXT 2552 -416 Left 2 !.param D=75
TEXT 2552 -392 Left 2 !.param E=6
TEXT 2552 -368 Left 2 !.param F=60
TEXT 2552 -248 Left 2 !.param P=60
TEXT 2552 -224 Left 2 !.param Q=67
TEXT 2552 -200 Left 2 !.param R=28
TEXT 2552 -176 Left 2 !.param S=41
TEXT 2552 -152 Left 2 !.param T=93
TEXT 2552 -56 Left 2 !.param X=93
TEXT 2552 -32 Left 2 !.param Y=90
TEXT 2552 -128 Left 2 !.param U=6
TEXT 2552 -104 Left 2 !.param V=60
TEXT 2552 -80 Left 2 !.param W=180
TEXT 2552 -320 Left 2 !.param H=600
TEXT 2552 -8 Left 2 !.param Z=480
TEXT 2552 -344 Left 2 !.param G=600
TEXT 2552 -296 Left 2 !.param I=60
TEXT 2552 -272 Left 2 !.param J=40
