Version 4
SHEET 1 3196 952
WIRE 528 128 528 112
WIRE 672 128 672 112
WIRE 816 128 816 112
WIRE 960 128 960 112
WIRE 1104 128 1104 112
WIRE 1248 128 1248 112
WIRE 1392 128 1392 112
WIRE 1536 128 1536 112
WIRE 1680 128 1680 112
WIRE 1824 128 1824 112
WIRE 624 160 576 160
WIRE 768 160 720 160
WIRE 912 160 864 160
WIRE 1056 160 1008 160
WIRE 1200 160 1152 160
WIRE 1344 160 1296 160
WIRE 1488 160 1440 160
WIRE 1632 160 1584 160
WIRE 1776 160 1728 160
WIRE 624 208 576 208
WIRE 768 208 720 208
WIRE 912 208 864 208
WIRE 1056 208 1008 208
WIRE 1200 208 1152 208
WIRE 1344 208 1296 208
WIRE 1488 208 1440 208
WIRE 1632 208 1584 208
WIRE 1776 208 1728 208
WIRE 480 240 464 240
WIRE 592 240 576 240
WIRE 624 240 608 240
WIRE 736 240 720 240
WIRE 768 240 752 240
WIRE 880 240 864 240
WIRE 912 240 896 240
WIRE 1024 240 1008 240
WIRE 1056 240 1040 240
WIRE 1168 240 1152 240
WIRE 1200 240 1184 240
WIRE 1312 240 1296 240
WIRE 1344 240 1328 240
WIRE 1456 240 1440 240
WIRE 1488 240 1472 240
WIRE 1600 240 1584 240
WIRE 1632 240 1616 240
WIRE 1744 240 1728 240
WIRE 1776 240 1760 240
WIRE 1888 240 1872 240
WIRE 528 272 528 256
WIRE 672 272 672 256
WIRE 816 272 816 256
WIRE 960 272 960 256
WIRE 1104 272 1104 256
WIRE 1248 272 1248 256
WIRE 1392 272 1392 256
WIRE 1536 272 1536 256
WIRE 1680 272 1680 256
WIRE 1824 272 1824 256
WIRE 464 320 464 240
WIRE 464 320 448 320
WIRE 608 320 608 240
WIRE 608 320 464 320
WIRE 752 320 752 240
WIRE 752 320 608 320
WIRE 896 320 896 240
WIRE 896 320 752 320
WIRE 1040 320 1040 240
WIRE 1040 320 896 320
WIRE 1184 320 1184 240
WIRE 1184 320 1040 320
WIRE 1328 320 1328 240
WIRE 1328 320 1184 320
WIRE 1472 320 1472 240
WIRE 1472 320 1328 320
WIRE 1616 320 1616 240
WIRE 1616 320 1472 320
WIRE 1760 320 1760 240
WIRE 1760 320 1616 320
WIRE 592 352 592 240
WIRE 592 352 448 352
WIRE 736 352 736 240
WIRE 736 352 592 352
WIRE 880 352 880 240
WIRE 880 352 736 352
WIRE 1024 352 1024 240
WIRE 1024 352 880 352
WIRE 1168 352 1168 240
WIRE 1168 352 1024 352
WIRE 1312 352 1312 240
WIRE 1312 352 1168 352
WIRE 1456 352 1456 240
WIRE 1456 352 1312 352
WIRE 1600 352 1600 240
WIRE 1600 352 1456 352
WIRE 1744 352 1744 240
WIRE 1744 352 1600 352
WIRE 1888 352 1888 240
WIRE 1888 352 1744 352
WIRE 640 432 624 432
WIRE 784 432 768 432
WIRE 640 560 624 560
WIRE 784 560 768 560
WIRE 640 688 624 688
WIRE 784 688 768 688
FLAG 448 320 Rst
FLAG 448 352 _Rst
FLAG 784 688 _Rst
FLAG 784 560 Rst
SYMBOL GasP 672 192 R0
SYMATTR InstName X2
SYMBOL cktsym/gnd 528 272 R0
SYMATTR InstName U1
SYMBOL cktsym/vdd 528 112 R0
SYMATTR InstName U11
SYMBOL cktsym/vdd 672 112 R0
SYMATTR InstName U12
SYMBOL cktsym/vdd 816 112 R0
SYMATTR InstName U13
SYMBOL cktsym/vdd 960 112 R0
SYMATTR InstName U14
SYMBOL cktsym/vdd 1104 112 R0
SYMATTR InstName U15
SYMBOL cktsym/vdd 1248 112 R0
SYMATTR InstName U16
SYMBOL cktsym/vdd 1392 112 R0
SYMATTR InstName U19
SYMBOL cktsym/vdd 1536 112 R0
SYMATTR InstName U20
SYMBOL cktsym/vdd 1680 112 R0
SYMATTR InstName U21
SYMBOL cktsym/vdd 1824 112 R0
SYMATTR InstName U22
SYMBOL cktsym/gnd 672 272 R0
SYMATTR InstName U2
SYMBOL cktsym/gnd 816 272 R0
SYMATTR InstName U3
SYMBOL cktsym/gnd 960 272 R0
SYMATTR InstName U4
SYMBOL cktsym/gnd 1104 272 R0
SYMATTR InstName U5
SYMBOL cktsym/gnd 1248 272 R0
SYMATTR InstName U6
SYMBOL cktsym/gnd 1392 272 R0
SYMATTR InstName U7
SYMBOL cktsym/gnd 1536 272 R0
SYMATTR InstName U8
SYMBOL cktsym/gnd 1680 272 R0
SYMATTR InstName U9
SYMBOL cktsym/gnd 1824 272 R0
SYMATTR InstName U10
SYMBOL GasPSink 1824 192 R0
SYMATTR InstName X9
SYMBOL GasPSource 528 192 R0
SYMATTR InstName X10
SYMBOL GasP 816 192 R0
SYMATTR InstName X1
SYMBOL GasP 960 192 R0
SYMATTR InstName X3
SYMBOL GasP 1104 192 R0
SYMATTR InstName X4
SYMBOL GasP 1248 192 R0
SYMATTR InstName X5
SYMBOL GasP 1392 192 R0
SYMATTR InstName X6
SYMBOL GasP 1536 192 R0
SYMATTR InstName X7
SYMBOL GasP 1680 192 R0
SYMATTR InstName X8
SYMBOL cktsym/vsource 704 432 R90
WINDOW 3 32 0 VTop 2
WINDOW 0 -32 0 VBottom 2
SYMATTR Value {Vdd}
SYMATTR InstName V1
SYMBOL cktsym/gnd 624 432 R90
SYMATTR InstName U17
SYMBOL cktsym/vdd 784 432 R90
SYMATTR InstName U18
SYMBOL cktsym/vsource 704 560 R90
WINDOW 3 32 0 VTop 2
WINDOW 0 -32 0 VBottom 2
SYMATTR Value PWL(0 {Vdd} {Trst-Ts} {Vdd} {Trst} 0)
SYMATTR InstName V2
SYMBOL cktsym/gnd 624 560 R90
SYMATTR InstName U23
SYMBOL cktsym/vsource 704 688 R90
WINDOW 3 32 0 VTop 2
WINDOW 0 -32 0 VBottom 2
SYMATTR Value PWL(0 0 {Trst-Ts} 0 {Trst} {Vdd})
SYMATTR InstName V3
SYMBOL cktsym/gnd 624 688 R90
SYMATTR InstName U24
TEXT 1016 376 Left 2 !.param Vdd=5
TEXT 840 400 Left 2 !.inc main.sub
TEXT 840 376 Left 2 !.tran {Tm}
TEXT 1016 400 Left 2 !.param Tm=50n Trst=1n Ts=1p
