Version 4
SHEET 1 1148 1644
WIRE 560 -64 544 -64
WIRE 656 -64 560 -64
WIRE 368 96 352 96
WIRE 384 96 368 96
WIRE -96 160 -176 160
WIRE -16 160 -96 160
WIRE 208 176 160 176
WIRE 288 176 288 160
WIRE 288 176 208 176
WIRE 448 176 448 160
WIRE 528 176 448 176
WIRE 576 176 528 176
WIRE 288 192 288 176
WIRE 448 192 448 176
WIRE 224 256 192 256
WIRE 544 256 512 256
WIRE 848 256 768 256
WIRE 928 256 848 256
WIRE 368 320 288 320
WIRE 448 320 368 320
WIRE 848 384 768 384
WIRE 928 384 848 384
WIRE 848 432 848 384
FLAG 128 320 A
FLAG 608 320 A
FLAG 192 384 neg
FLAG 544 384 neg
FLAG -160 224 S0
FLAG -160 352 S1
FLAG -240 96 S0
FLAG 48 96 S1
FLAG -176 32 pos
FLAG -16 32 pos
FLAG -96 416 neg
FLAG -16 160 A
FLAG 704 320 R0
FLAG 992 320 R1
FLAG 784 64 R0
FLAG 784 192 R1
FLAG 848 0 pos
FLAG 848 432 neg
FLAG 928 256 B
FLAG 304 384 B
FLAG 368 96 B
FLAG 192 256 L0
FLAG 544 256 L1
FLAG 96 240 R0
FLAG 640 240 R1
FLAG 208 176 S0
FLAG 528 176 S1
FLAG 96 112 pos
FLAG 288 32 pos
FLAG 448 32 pos
FLAG 640 112 pos
FLAG 368 448 neg
FLAG 624 0 neg
FLAG 720 0 neg
FLAG 624 -128 R0
FLAG 720 -128 R1
FLAG 544 -64 Rst
SYMBOL nmos3 192 320 R0
SYMATTR InstName M1
SYMATTR SpiceLine W={M}
SYMBOL nmos3 544 320 R180
SYMATTR InstName M2
SYMATTR SpiceLine W={M}
SYMBOL nmos3 -96 224 R0
SYMATTR InstName F1
SYMATTR SpiceLine W={F}
SYMBOL nmos3 -96 352 R0
SYMATTR InstName F2
SYMATTR SpiceLine W = {F}
SYMBOL pmos3 -176 96 R0
SYMATTR InstName C1
SYMATTR SpiceLine W={C}
SYMBOL pmos3 -16 96 R180
SYMATTR InstName C2
SYMATTR SpiceLine W={C}
SYMBOL nmos3 768 320 R0
SYMATTR InstName L1
SYMATTR SpiceLine W={L}
SYMBOL nmos3 928 320 R180
SYMATTR InstName L2
SYMATTR SpiceLine W={L}
SYMBOL pmos3 848 64 R0
SYMATTR InstName K1
SYMATTR SpiceLine W={K}
SYMBOL pmos3 848 192 R0
SYMATTR InstName K2
SYMATTR SpiceLine W={K}
SYMBOL pmos3 448 96 R0
SYMATTR InstName H1
SYMATTR SpiceLine W={H}
SYMBOL nmos3 368 384 R0
SYMATTR InstName J
SYMATTR SpiceLine W={J}
SYMBOL nmos3 288 256 R0
SYMATTR InstName I1
SYMATTR SpiceLine W={I}
SYMBOL nmos3 448 256 R180
SYMATTR InstName I2
SYMATTR SpiceLine W={I}
SYMBOL pmos3 288 96 R180
SYMATTR InstName H2
SYMATTR SpiceLine W={H}
SYMBOL pmos3 640 176 R0
SYMATTR InstName G1
SYMATTR SpiceLine W={G}
SYMBOL pmos3 96 176 R180
SYMATTR InstName G2
SYMATTR SpiceLine W={G}
SYMBOL nmos3 624 -64 R0
SYMATTR InstName N1
SYMATTR SpiceLine W={N}
SYMBOL nmos3 720 -64 R0
SYMATTR InstName N2
SYMATTR SpiceLine W={N}
TEXT -432 64 Left 2 !.param A=40
TEXT -432 88 Left 2 !.param B=20
TEXT -432 112 Left 2 !.param C=20
TEXT -432 136 Left 2 !.param D=60
TEXT -432 160 Left 2 !.param E=10
TEXT -432 184 Left 2 !.param F=20
TEXT -432 208 Left 2 !.param G=20
TEXT -432 232 Left 2 !.param H=10
TEXT -432 256 Left 2 !.param I=60
TEXT -432 280 Left 2 !.param J=60
TEXT -432 304 Left 2 !.param K=10
TEXT -432 328 Left 2 !.param L=90
TEXT -432 352 Left 2 !.param M=60
TEXT -432 376 Left 2 !.param N=600
