Version 4
SHEET 1 1544 1244
WIRE 976 560 928 560
WIRE 1024 560 976 560
WIRE 976 592 928 592
WIRE 1024 592 976 592
WIRE 976 624 928 624
WIRE 1024 624 976 624
FLAG 976 624 Re
FLAG 976 592 R0
FLAG 976 560 R1
FLAG 1024 656 Rst
FLAG 1120 656 _Rst
FLAG 1072 672 neg
FLAG 1072 544 pos
FLAG 928 656 _Rst
FLAG 880 672 neg
FLAG 880 544 pos
FLAG 832 656 Rst
FLAG 832 560 L1
FLAG 832 592 L0
SYMBOL WCHBSink 1072 608 R0
SYMATTR InstName X1
SYMBOL STFBRX 880 608 R0
SYMATTR InstName X2
