Version 4
SHEET 1 1044 732
WIRE -80 -192 -96 -192
WIRE 16 -192 -80 -192
WIRE -496 -32 -576 -32
WIRE -416 -32 -496 -32
WIRE -496 80 -496 -32
WIRE -480 80 -496 80
WIRE -336 80 -352 80
WIRE 304 96 288 96
WIRE 320 96 304 96
WIRE -496 144 -496 80
WIRE -480 144 -496 144
WIRE -336 144 -336 80
WIRE -336 144 -352 144
WIRE 144 176 96 176
WIRE 224 176 224 160
WIRE 224 176 144 176
WIRE 384 176 384 160
WIRE 464 176 384 176
WIRE 512 176 464 176
WIRE 224 192 224 176
WIRE 384 192 384 176
WIRE 848 192 768 192
WIRE 928 192 848 192
WIRE -496 240 -496 144
WIRE 160 256 128 256
WIRE 480 256 448 256
WIRE -736 304 -816 304
WIRE -656 304 -736 304
WIRE -560 304 -656 304
WIRE 304 320 224 320
WIRE 384 320 304 320
WIRE 848 320 768 320
WIRE 928 320 848 320
WIRE 848 368 848 320
WIRE -736 432 -816 432
WIRE -656 432 -736 432
WIRE -736 480 -736 432
FLAG 240 512 B
FLAG 304 96 B
FLAG 128 256 L0
FLAG 480 256 L1
FLAG 32 240 R0
FLAG 576 240 R1
FLAG 144 176 S0
FLAG 464 176 S1
FLAG 32 112 pos
FLAG 224 32 pos
FLAG 384 32 pos
FLAG 576 112 pos
FLAG 304 576 neg
FLAG -640 -96 S0
FLAG -352 -96 S1
FLAG -576 -160 pos
FLAG -416 -160 pos
FLAG -496 368 neg
FLAG -416 -32 A
FLAG 704 256 R0
FLAG 992 256 R1
FLAG 784 0 R0
FLAG 784 128 R1
FLAG 848 -64 pos
FLAG 848 368 neg
FLAG 928 192 B
FLAG 240 384 Le
FLAG -880 368 L0
FLAG -592 368 L1
FLAG -800 112 L0
FLAG -800 240 L1
FLAG -736 48 POS
FLAG -736 480 NEG
FLAG -336 80 Le
FLAG -16 -128 neg
FLAG 80 -128 neg
FLAG -16 -256 R0
FLAG 80 -256 R1
FLAG -96 -192 Rst
SYMBOL pmos3 384 96 R0
SYMATTR InstName H2
SYMATTR SpiceLine W={H}
SYMBOL nmos3 304 512 R0
SYMATTR InstName J2
SYMATTR SpiceLine W={J}
SYMBOL nmos3 224 256 R0
SYMATTR InstName I1
SYMATTR SpiceLine W={I}
SYMBOL nmos3 384 256 R180
SYMATTR InstName I2
SYMATTR SpiceLine W={I}
SYMBOL pmos3 224 96 R180
SYMATTR InstName H1
SYMATTR SpiceLine W={H}
SYMBOL pmos3 576 176 R0
SYMATTR InstName G2
SYMATTR SpiceLine W={G}
SYMBOL pmos3 32 176 R180
SYMATTR InstName G1
SYMATTR SpiceLine W={G}
SYMBOL nmos3 -496 304 R0
SYMATTR InstName F
SYMATTR SpiceLine W={F}
SYMBOL pmos3 -576 -96 R0
SYMATTR InstName C1
SYMATTR SpiceLine W={C}
SYMBOL pmos3 -416 -96 R180
SYMATTR InstName C2
SYMATTR SpiceLine W={C}
SYMBOL nmos3 768 256 R0
SYMATTR InstName L1
SYMATTR SpiceLine W={L}
SYMBOL nmos3 928 256 R180
SYMATTR InstName L2
SYMATTR SpiceLine W={L}
SYMBOL pmos3 848 0 R0
SYMATTR InstName K1
SYMATTR SpiceLine W={K}
SYMBOL pmos3 848 128 R0
SYMATTR InstName K2
SYMATTR SpiceLine W={K}
SYMBOL nmos3 304 384 R0
SYMATTR InstName J1
SYMATTR SpiceLine W=J
SYMBOL nmos3 -816 368 R0
SYMATTR InstName B1
SYMATTR SpiceLine W={B}
SYMBOL nmos3 -656 368 R180
SYMATTR InstName B2
SYMATTR SpiceLine W={B}
SYMBOL pmos3 -736 112 R0
SYMATTR InstName A1
SYMATTR SpiceLine W={A}
SYMBOL pmos3 -736 240 R0
SYMATTR InstName A2
SYMATTR SpiceLine W={A}
SYMBOL inverter -416 80 R0
WINDOW 0 0 0 Left 2
SYMATTR InstName D
SYMATTR SpiceLine W={D}
SYMBOL inverter -416 144 R180
WINDOW 0 0 0 Left 2
SYMATTR InstName E
SYMATTR SpiceLine W={E}
SYMBOL nmos3 -16 -192 R0
SYMATTR InstName N1
SYMATTR SpiceLine W={N}
SYMBOL nmos3 80 -192 R0
SYMATTR InstName N2
SYMATTR SpiceLine W={N}
TEXT -248 -24 Left 2 !.param A=40
TEXT -248 0 Left 2 !.param B=20
TEXT -248 24 Left 2 !.param C=20
TEXT -248 48 Left 2 !.param D=60
TEXT -248 72 Left 2 !.param E=10
TEXT -248 96 Left 2 !.param F=10
TEXT -248 120 Left 2 !.param G=20
TEXT -248 144 Left 2 !.param H=10
TEXT -248 168 Left 2 !.param I=60
TEXT -248 192 Left 2 !.param J=120
TEXT -248 216 Left 2 !.param K=10
TEXT -248 240 Left 2 !.param L=90
TEXT -248 264 Left 2 !.param N=600
