Version 4
SHEET 1 1544 1244
WIRE 624 432 608 432
WIRE 640 432 624 432
WIRE 464 512 416 512
WIRE 544 512 544 496
WIRE 544 512 464 512
WIRE 704 512 704 496
WIRE 784 512 704 512
WIRE 832 512 784 512
WIRE 544 528 544 512
WIRE 704 528 704 512
WIRE 1104 576 1088 576
WIRE 1200 576 1104 576
WIRE 480 592 448 592
WIRE 800 592 768 592
WIRE 624 656 544 656
WIRE 704 656 624 656
WIRE 1008 784 784 784
WIRE 1024 784 1008 784
WIRE 576 976 464 976
WIRE 768 976 576 976
WIRE 848 976 768 976
WIRE 928 976 848 976
WIRE 1008 1040 1008 784
WIRE 1008 1040 992 1040
WIRE 848 1104 768 1104
WIRE 928 1104 848 1104
WIRE 848 1152 848 1104
FLAG 704 1040 Re
FLAG 848 720 pos
FLAG 848 1152 neg
FLAG 928 976 B
FLAG 560 720 Re
FLAG 624 432 Re
FLAG 448 592 L0
FLAG 800 592 L1
FLAG 464 512 S0
FLAG 784 512 S1
FLAG 544 368 pos
FLAG 704 368 pos
FLAG 624 784 neg
FLAG 640 1040 neg
FLAG 528 1040 neg
FLAG 528 912 L0
FLAG 640 912 L1
FLAG 288 512 R0
FLAG 960 512 R1
FLAG 784 912 Re
FLAG 1408 784 Re
FLAG 1168 640 neg
FLAG 1264 640 neg
FLAG 1168 512 R0
FLAG 1264 512 R1
FLAG 1088 576 Rst
SYMBOL nmos3 768 1040 R0
SYMATTR InstName L1
SYMATTR SpiceLine W={L}
SYMBOL nmos3 928 1040 R180
SYMATTR InstName L2
SYMATTR SpiceLine W={L}
SYMBOL pmos3 848 784 R0
SYMATTR InstName K1
SYMATTR SpiceLine W={K}
SYMBOL pmos3 848 912 R0
SYMATTR InstName K2
SYMATTR SpiceLine W={K}
SYMBOL pmos3 704 432 R0
SYMATTR InstName H1
SYMATTR SpiceLine W={H}
SYMBOL nmos3 624 720 R0
SYMATTR InstName J1
SYMATTR SpiceLine W={J}
SYMBOL nmos3 544 592 R0
SYMATTR InstName I1
SYMATTR SpiceLine W={I}
SYMBOL nmos3 704 592 R180
SYMATTR InstName I2
SYMATTR SpiceLine W={I}
SYMBOL pmos3 544 432 R180
SYMATTR InstName H2
SYMATTR SpiceLine W={H}
SYMBOL inverter 352 512 R180
WINDOW 0 -20 0 Left 2
SYMATTR InstName G1
SYMATTR SpiceLine W={G}
SYMBOL inverter 896 512 R0
WINDOW 0 -20 0 Left 2
SYMATTR InstName G2
SYMATTR SpiceLine W={G}
SYMBOL nmos3 528 976 R0
SYMATTR InstName M1
SYMATTR SpiceLine W={M}
SYMBOL nmos3 640 976 R0
SYMATTR InstName M2
SYMATTR SpiceLine W={M}
SYMBOL inverter 1088 784 R180
WINDOW 0 0 0 Left 2
SYMATTR InstName N1
SYMATTR SpiceLine W={100*N}
SYMBOL inverter 1216 784 R180
WINDOW 0 0 0 Left 2
SYMATTR InstName N2
SYMATTR SpiceLine W={10*N}
SYMBOL inverter 1344 784 R180
WINDOW 0 0 0 Left 2
SYMATTR InstName N3
SYMATTR SpiceLine W={N}
SYMBOL nmos3 1168 576 R0
SYMATTR InstName N4
SYMATTR SpiceLine W={N}
SYMBOL nmos3 1264 576 R0
SYMATTR InstName N5
SYMATTR SpiceLine W={N}
TEXT 280 664 Left 2 !.param A=40
TEXT 280 688 Left 2 !.param B=20
TEXT 280 712 Left 2 !.param C=20
TEXT 280 736 Left 2 !.param D=60
TEXT 280 760 Left 2 !.param E=10
TEXT 280 784 Left 2 !.param F=20
TEXT 280 808 Left 2 !.param G=20
TEXT 280 832 Left 2 !.param H=10
TEXT 280 856 Left 2 !.param I=60
TEXT 280 880 Left 2 !.param J=60
TEXT 280 904 Left 2 !.param K=10
TEXT 280 928 Left 2 !.param L=90
TEXT 280 952 Left 2 !.param M=60
TEXT 280 976 Left 2 !.param N=60
