Version 4
SHEET 1 1044 732
WIRE -208 528 -256 528
WIRE -160 528 -208 528
WIRE -208 560 -256 560
WIRE -160 560 -208 560
WIRE -208 592 -256 592
WIRE -160 592 -208 592
FLAG -304 640 NEG
FLAG -352 624 Rst
FLAG -256 624 _Rst
FLAG -208 528 L1
FLAG -208 560 L0
FLAG -208 592 Le
FLAG -304 512 POS
FLAG -64 528 R1
FLAG -64 560 R0
FLAG -112 640 NEG
FLAG -112 512 POS
FLAG -160 624 Rst
FLAG -64 624 _Rst
SYMBOL WCHBSource -304 576 R0
SYMATTR InstName X1
SYMBOL STFBTX -112 576 R0
SYMATTR InstName X2
