Version 4
SHEET 1 3196 952
WIRE 448 128 448 112
WIRE 592 128 592 112
WIRE 736 128 736 112
WIRE 880 128 880 112
WIRE 1024 128 1024 112
WIRE 1168 128 1168 112
WIRE 1312 128 1312 112
WIRE 1456 128 1456 112
WIRE 1600 128 1600 112
WIRE 1744 128 1744 112
WIRE 544 144 496 144
WIRE 688 144 640 144
WIRE 832 144 784 144
WIRE 976 144 928 144
WIRE 1120 144 1072 144
WIRE 1264 144 1216 144
WIRE 1408 144 1360 144
WIRE 1552 144 1504 144
WIRE 1696 144 1648 144
WIRE 544 176 496 176
WIRE 688 176 640 176
WIRE 832 176 784 176
WIRE 976 176 928 176
WIRE 1120 176 1072 176
WIRE 1264 176 1216 176
WIRE 1408 176 1360 176
WIRE 1552 176 1504 176
WIRE 1696 176 1648 176
WIRE 544 208 496 208
WIRE 688 208 640 208
WIRE 832 208 784 208
WIRE 976 208 928 208
WIRE 1120 208 1072 208
WIRE 1264 208 1216 208
WIRE 1408 208 1360 208
WIRE 1552 208 1504 208
WIRE 1696 208 1648 208
WIRE 400 240 384 240
WIRE 512 240 496 240
WIRE 544 240 528 240
WIRE 656 240 640 240
WIRE 688 240 672 240
WIRE 800 240 784 240
WIRE 832 240 816 240
WIRE 944 240 928 240
WIRE 976 240 960 240
WIRE 1088 240 1072 240
WIRE 1120 240 1104 240
WIRE 1232 240 1216 240
WIRE 1264 240 1248 240
WIRE 1376 240 1360 240
WIRE 1408 240 1392 240
WIRE 1520 240 1504 240
WIRE 1552 240 1536 240
WIRE 1664 240 1648 240
WIRE 1696 240 1680 240
WIRE 1808 240 1792 240
WIRE 448 272 448 256
WIRE 592 272 592 256
WIRE 736 272 736 256
WIRE 880 272 880 256
WIRE 1024 272 1024 256
WIRE 1168 272 1168 256
WIRE 1312 272 1312 256
WIRE 1456 272 1456 256
WIRE 1600 272 1600 256
WIRE 1744 272 1744 256
WIRE 384 320 384 240
WIRE 384 320 368 320
WIRE 528 320 528 240
WIRE 528 320 384 320
WIRE 672 320 672 240
WIRE 672 320 528 320
WIRE 816 320 816 240
WIRE 816 320 672 320
WIRE 960 320 960 240
WIRE 960 320 816 320
WIRE 1104 320 1104 240
WIRE 1104 320 960 320
WIRE 1248 320 1248 240
WIRE 1248 320 1104 320
WIRE 1392 320 1392 240
WIRE 1392 320 1248 320
WIRE 1536 320 1536 240
WIRE 1536 320 1392 320
WIRE 1680 320 1680 240
WIRE 1680 320 1536 320
WIRE 512 352 512 240
WIRE 512 352 368 352
WIRE 656 352 656 240
WIRE 656 352 512 352
WIRE 800 352 800 240
WIRE 800 352 656 352
WIRE 944 352 944 240
WIRE 944 352 800 352
WIRE 1088 352 1088 240
WIRE 1088 352 944 352
WIRE 1232 352 1232 240
WIRE 1232 352 1088 352
WIRE 1376 352 1376 240
WIRE 1376 352 1232 352
WIRE 1520 352 1520 240
WIRE 1520 352 1376 352
WIRE 1664 352 1664 240
WIRE 1664 352 1520 352
WIRE 1808 352 1808 240
WIRE 1808 352 1664 352
WIRE 560 432 544 432
WIRE 704 432 688 432
WIRE 560 560 544 560
WIRE 704 560 688 560
WIRE 560 688 544 688
WIRE 704 688 688 688
FLAG 368 320 Rst
FLAG 368 352 _Rst
FLAG 704 688 _Rst
FLAG 704 560 Rst
SYMBOL cktsym/vsource 624 432 R90
WINDOW 3 32 0 VTop 2
WINDOW 0 -32 0 VBottom 2
SYMATTR Value {Vdd}
SYMATTR InstName V1
SYMBOL cktsym/gnd 544 432 R90
SYMATTR InstName U17
SYMBOL cktsym/vdd 704 432 R90
SYMATTR InstName U18
SYMBOL cktsym/vdd 592 112 R0
SYMATTR InstName U12
SYMBOL cktsym/vdd 736 112 R0
SYMATTR InstName U13
SYMBOL cktsym/vdd 880 112 R0
SYMATTR InstName U14
SYMBOL cktsym/vdd 1024 112 R0
SYMATTR InstName U15
SYMBOL cktsym/vdd 1168 112 R0
SYMATTR InstName U16
SYMBOL cktsym/vdd 1312 112 R0
SYMATTR InstName U19
SYMBOL cktsym/vdd 1456 112 R0
SYMATTR InstName U20
SYMBOL cktsym/vdd 1600 112 R0
SYMATTR InstName U21
SYMBOL cktsym/gnd 592 272 R0
SYMATTR InstName U2
SYMBOL cktsym/gnd 736 272 R0
SYMATTR InstName U3
SYMBOL cktsym/gnd 880 272 R0
SYMATTR InstName U4
SYMBOL cktsym/gnd 1024 272 R0
SYMATTR InstName U5
SYMBOL cktsym/gnd 1168 272 R0
SYMATTR InstName U6
SYMBOL cktsym/gnd 1312 272 R0
SYMATTR InstName U7
SYMBOL cktsym/gnd 1456 272 R0
SYMATTR InstName U8
SYMBOL cktsym/gnd 1600 272 R0
SYMATTR InstName U9
SYMBOL cktsym/vsource 624 560 R90
WINDOW 3 32 0 VTop 2
WINDOW 0 -32 0 VBottom 2
SYMATTR Value PWL(0 {Vdd} {Trst-Ts} {Vdd} {Trst} 0)
SYMATTR InstName V2
SYMBOL cktsym/gnd 544 560 R90
SYMATTR InstName U23
SYMBOL cktsym/vsource 624 688 R90
WINDOW 3 32 0 VTop 2
WINDOW 0 -32 0 VBottom 2
SYMATTR Value PWL(0 0 {Trst-Ts} 0 {Trst} {Vdd})
SYMATTR InstName V3
SYMBOL cktsym/gnd 544 688 R90
SYMATTR InstName U25
SYMBOL WCHB 592 192 R0
SYMATTR InstName U24
SYMBOL WCHB 736 192 R0
SYMATTR InstName U26
SYMBOL WCHB 880 192 R0
SYMATTR InstName U27
SYMBOL WCHB 1024 192 R0
SYMATTR InstName U28
SYMBOL WCHB 1168 192 R0
SYMATTR InstName U29
SYMBOL WCHB 1312 192 R0
SYMATTR InstName U30
SYMBOL WCHB 1456 192 R0
SYMATTR InstName U31
SYMBOL WCHB 1600 192 R0
SYMATTR InstName U32
SYMBOL WCHBSink 1744 192 R0
SYMATTR InstName X1
SYMBOL WCHBSource 448 192 R0
SYMATTR InstName X2
SYMBOL cktsym/vdd 1744 112 R0
SYMATTR InstName U1
SYMBOL cktsym/gnd 1744 272 R0
SYMATTR InstName U10
SYMBOL cktsym/vdd 448 112 R0
SYMATTR InstName U11
SYMBOL cktsym/gnd 448 272 R0
SYMATTR InstName U22
TEXT 936 376 Left 2 !.param Vdd=5
TEXT 760 400 Left 2 !.inc main.sub
TEXT 760 376 Left 2 !.tran {Tm}
TEXT 936 400 Left 2 !.param Tm=50n Trst=1n Ts=1p
