Version 4
SHEET 1 1524 680
WIRE 496 48 464 48
WIRE 528 48 496 48
WIRE 1088 48 1056 48
WIRE 1120 48 1088 48
WIRE 464 64 464 48
WIRE 528 64 528 48
WIRE 1056 64 1056 48
WIRE 1120 64 1120 48
WIRE 592 128 528 128
WIRE 608 128 592 128
WIRE 1184 128 1120 128
WIRE 1200 128 1184 128
WIRE 256 192 240 192
WIRE 848 192 832 192
WIRE 240 208 240 192
WIRE 240 208 80 208
WIRE 400 208 400 176
WIRE 400 208 384 208
WIRE 464 208 464 192
WIRE 464 208 400 208
WIRE 544 208 464 208
WIRE 688 208 672 208
WIRE 832 208 832 192
WIRE 832 208 688 208
WIRE 992 208 992 176
WIRE 992 208 976 208
WIRE 1056 208 1056 192
WIRE 1056 208 992 208
WIRE 1136 208 1056 208
WIRE 1280 208 1264 208
WIRE 256 224 240 224
WIRE 848 224 832 224
WIRE 400 240 400 208
WIRE 992 240 992 208
WIRE 240 256 240 224
WIRE 432 256 240 256
WIRE 832 256 832 224
WIRE 1024 256 832 256
WIRE 400 288 400 240
WIRE 400 288 384 288
WIRE 992 288 992 240
WIRE 992 288 976 288
WIRE 96 304 80 304
WIRE 256 304 224 304
WIRE 432 304 432 256
WIRE 672 304 432 304
WIRE 688 304 672 304
WIRE 848 304 816 304
WIRE 1024 304 1024 256
WIRE 1280 304 1024 304
WIRE 400 320 384 320
WIRE 992 320 976 320
WIRE 432 352 432 304
WIRE 432 352 240 352
WIRE 1024 352 1024 304
WIRE 1024 352 832 352
WIRE 240 384 240 352
WIRE 256 384 240 384
WIRE 400 384 400 320
WIRE 832 384 832 352
WIRE 848 384 832 384
WIRE 992 384 992 320
WIRE 240 400 80 400
WIRE 400 400 400 384
WIRE 400 400 384 400
WIRE 528 400 528 192
WIRE 528 400 400 400
WIRE 544 400 528 400
WIRE 688 400 672 400
WIRE 832 400 688 400
WIRE 992 400 992 384
WIRE 992 400 976 400
WIRE 1120 400 1120 192
WIRE 1120 400 992 400
WIRE 1136 400 1120 400
WIRE 1280 400 1264 400
WIRE 240 416 240 400
WIRE 256 416 240 416
WIRE 832 416 832 400
WIRE 848 416 832 416
WIRE 400 432 400 400
WIRE 992 432 992 400
FLAG 80 208 Lti
FLAG 80 400 Lfi
FLAG 80 304 Le
FLAG 400 240 St
FLAG 400 384 Sf
FLAG 608 128 _Rst
FLAG 496 48 POS
FLAG 1280 208 Rto
FLAG 1280 400 Rfo
FLAG 1280 304 Re
FLAG 992 240 St1
FLAG 992 384 Sf1
FLAG 1200 128 _Rst
FLAG 1088 48 POS
FLAG 688 208 Mt
FLAG 688 400 Mf
FLAG 672 304 Me
SYMBOL cel 320 208 R0
WINDOW 0 -18 0 Left 2
SYMATTR InstName At
SYMATTR SpiceLine W={A}
SYMBOL nand 320 304 M0
WINDOW 0 0 0 Left 2
SYMATTR InstName B
SYMATTR SpiceLine W={B}
SYMBOL cel 320 400 R0
WINDOW 0 -15 1 Left 2
SYMATTR InstName Af
SYMATTR SpiceLine W={A}
SYMBOL inverter 160 304 M0
WINDOW 0 0 0 Left 2
SYMATTR InstName C
SYMATTR SpiceLine W={C}
SYMBOL inverter 608 208 R0
WINDOW 0 -18 -2 Left 2
SYMATTR InstName Dt
SYMATTR SpiceLine W={D}
SYMBOL inverter 608 400 R0
WINDOW 0 -17 0 Left 2
SYMATTR InstName Df
SYMATTR SpiceLine W={D}
SYMBOL Stat 400 128 R0
SYMATTR InstName X1
SYMATTR SpiceLine E={E} F={F}
SYMBOL Stat 400 480 R180
SYMATTR InstName X2
SYMATTR SpiceLine E={E} F={F}
SYMBOL cktsym/pmos3 464 128 M0
WINDOW 0 -32 -18 Left 2
SYMATTR InstName Gt
SYMATTR SpiceLine W={G}
SYMBOL cktsym/pmos3 528 128 M0
WINDOW 0 -31 -16 Left 2
SYMATTR InstName Gf
SYMATTR SpiceLine W={G}
SYMBOL cel 912 208 R0
WINDOW 0 -18 0 Left 2
SYMATTR InstName At1
SYMATTR SpiceLine W={A}
SYMBOL nand 912 304 M0
WINDOW 0 0 0 Left 2
SYMATTR InstName B1
SYMATTR SpiceLine W={B}
SYMBOL cel 912 400 R0
WINDOW 0 -15 1 Left 2
SYMATTR InstName Af1
SYMATTR SpiceLine W={A}
SYMBOL inverter 752 304 M0
WINDOW 0 0 0 Left 2
SYMATTR InstName C1
SYMATTR SpiceLine W={C}
SYMBOL inverter 1200 208 R0
WINDOW 0 -18 -2 Left 2
SYMATTR InstName Dt1
SYMATTR SpiceLine W={D}
SYMBOL inverter 1200 400 R0
WINDOW 0 -17 0 Left 2
SYMATTR InstName Df1
SYMATTR SpiceLine W={D}
SYMBOL Stat 992 128 R0
SYMATTR InstName X3
SYMATTR SpiceLine E={E} F={F}
SYMBOL Stat 992 480 R180
SYMATTR InstName X4
SYMATTR SpiceLine E={E} F={F}
SYMBOL cktsym/pmos3 1056 128 M0
WINDOW 0 -32 -18 Left 2
SYMATTR InstName Gt1
SYMATTR SpiceLine W={G}
SYMBOL cktsym/pmos3 1120 128 M0
WINDOW 0 -31 -16 Left 2
SYMATTR InstName Gf1
SYMATTR SpiceLine W={G}
TEXT 1344 216 Left 2 !.param A=60
TEXT 1344 240 Left 2 !.param B=60
TEXT 1344 264 Left 2 !.param C=60
TEXT 1344 288 Left 2 !.param D=60
TEXT 1344 312 Left 2 !.param E=6
TEXT 1344 336 Left 2 !.param F=60
TEXT 1344 360 Left 2 !.param G=600
