Version 4
SHEET 1 3196 952
WIRE 352 144 336 144
WIRE 496 144 480 144
WIRE 336 208 336 144
WIRE 352 208 336 208
WIRE 496 208 480 208
WIRE 352 304 336 304
WIRE 496 304 480 304
FLAG 496 144 Rto
FLAG 496 208 Re
FLAG 496 304 Rfo
FLAG 336 304 NEG
SYMBOL inverter 416 144 R0
WINDOW 0 0 0 Left 2
SYMATTR InstName A
SYMATTR SpiceLine W={A}
SYMBOL inverter 416 208 R180
WINDOW 0 0 0 Left 2
SYMATTR InstName B
SYMATTR SpiceLine W={B}
SYMBOL vsource 416 304 R90
WINDOW 3 32 0 VTop 2
WINDOW 0 -32 0 VBottom 2
SYMATTR Value 0
SYMATTR InstName V1
TEXT 448 240 Left 2 !.param A=60
TEXT 448 264 Left 2 !.param B=60
